
This summary file was generated by TurbSim (v2.00.07a-bjj, 14-Jun-2016) on 22-Dec-2020 at 21:03:01.


Runtime Options:

   6137456  Random seed #1
    789012  Random seed #2
         F  Output binary HH turbulence parameters?
         T  Output formatted turbulence parameters?
         T  Output AeroDyn HH files?
         T  Output AeroDyn FF files?
         F  Output BLADED FF files?
         F  Output tower data?
         F  Output formatted FF files?
         F  Output coherent turbulence time step file?
         T  Clockwise rotation when looking downwind?
 0 -  NONE  IEC turbulence models scaled to exact specified standard deviation


Turbine/Model Specifications:

        13  Vertical grid-point matrix dimension
        13  Horizontal grid-point matrix dimension
     0.100  Time step [seconds]
  1200.000  Analysis time [seconds]
  1000.000  Usable output time [seconds]
   119.000  Hub height [m]
   210.000  Grid height [m]
   230.000  Grid width [m]
     0.000  Vertical flow angle [degrees]
     0.000  Horizontal flow angle [degrees]


Meteorological Boundary Conditions:

    IECKAI  IEC Kaimal spectral model
         1  IEC standard: IEC 61400-1 Ed. 3: 2005
         C  IEC turbulence characteristic
       NTM  IEC Normal Turbulence Model
       N/A  IEC Extreme Turbulence Model (ETM) "c" parameter [m/s]
       IEC  Wind profile type
   119.000  Reference height [m]
    10.000  Reference wind speed [m/s]
       N/A  Jet height [m]
     0.000  Power law exponent
     0.030  Surface roughness length [m]


Non-IEC Meteorological Boundary Conditions:

       N/A  Site latitude [degrees]
       N/A  Gradient Richardson number
       N/A  Friction or shear velocity [m/s]
       N/A  Mixing layer depth [m]
       N/A  Mean hub u'w' Reynolds stress
       N/A  Mean hub u'v' Reynolds stress
       N/A  Mean hub v'w' Reynolds stress


Spatial Coherence Models:

       IEC  u-component coherence model
      NONE  v-component coherence model
      NONE  w-component coherence model
(   12.000, 0.353E-03)  u-component coherence parameters
                   N/A  v-component coherence parameters
                   N/A  w-component coherence parameters
       N/A  Coherence exponent


You have requested that the following file(s) be generated:

   v10ms.dat (formatted turbulence-parameter file)
   v10ms.hh  (AeroDyn hub-height file)
   v10ms.bts (AeroDyn/TurbSim full-field wind file)


Turbulence Simulation Scaling Parameter Summary:

   Turbulence model used                            =  IEC Kaimal
   Turbulence characteristic                        =  C
   IEC turbulence type                              =  Normal Turbulence Model
   IEC standard                                     =  IEC 61400-1 Ed. 3: 2005
   Mean wind speed at hub height                    =   10.000 m/s
   Expected value of turbulence intensity at 15 m/s =   12.000%
   Characteristic value of standard deviation       =    1.572 m/s
   Turbulence scale                                 =   42.000 m
   u-component integral scale                       =  340.200 m
   Coherency scale                                  =  340.200 m
   Characteristic value of hub turbulence intensity =   15.720%
   Gradient Richardson number                       =    0.000

   Wind profile type                                =  Power law on rotor disk, logarithmic elsewhere
   Power law exponent                               =    0.000
   Mean shear across rotor disk                     =    0.000 (m/s)/m
   Assumed rotor diameter                           =  210.000 m
   Surface roughness length                         =    0.030 m

   Nyquist frequency of turbulent wind field        =    5.000 Hz

   Number of time steps in the FFT                  =    12000
   Number of time steps output                      =    10230
   Number of points simulated                       =      169


Mean Flow Angles:

   Vertical   =   0.0 degrees
   Horizontal =   0.0 degrees

Mean Wind Speed Profile:

   Height    Wind Speed   Horizontal Angle  Vertical Angle  U-comp (X)   V-comp (Y)   W-comp (Z)
     (m)        (m/s)         (degrees)       (degrees)       (m/s)        (m/s)        (m/s)   
   ------    ----------   ----------------  --------------  ----------   ----------   ----------
    224.0       10.00            0.00            0.00         10.00         0.00         0.00
    206.5       10.00            0.00            0.00         10.00         0.00         0.00
    189.0       10.00            0.00            0.00         10.00         0.00         0.00
    171.5       10.00            0.00            0.00         10.00         0.00         0.00
    154.0       10.00            0.00            0.00         10.00         0.00         0.00
    136.5       10.00            0.00            0.00         10.00         0.00         0.00
    119.0       10.00            0.00            0.00         10.00         0.00         0.00
    101.5       10.00            0.00            0.00         10.00         0.00         0.00
     84.0       10.00            0.00            0.00         10.00         0.00         0.00
     66.5       10.00            0.00            0.00         10.00         0.00         0.00
     49.0       10.00            0.00            0.00         10.00         0.00         0.00
     31.5       10.00            0.00            0.00         10.00         0.00         0.00
     14.0       10.00            0.00            0.00         10.00         0.00         0.00


Harvested Random Seeds after Generation of the Random Numbers:

    657881061 Harvested seed # 1
    487108517 Harvested seed # 2


Hub-Height Simulated Turbulence Statistical Summary:

   Type of Wind        Min (m/s)   Mean (m/s)    Max (m/s)  Sigma (m/s)       TI (%)
   ----------------    ---------   ----------    ---------  -----------       ------
   Longitudinal (u)         5.58        10.00        15.15        1.370       13.703
   Lateral (v)             -4.65         0.00         3.75        1.233       12.328
   Vertical (w)            -2.62        -0.00         2.50        0.763        7.634
   U component              5.58        10.00        15.15        1.370       13.703
   V component             -4.65         0.00         3.75        1.233       12.328
   W component             -2.62        -0.00         2.50        0.763        7.634
   Horizontal (U&V)         5.80        10.08        15.24        1.368       13.576
   Total                    5.80        10.11        15.24        1.365       13.504

                       Min Reynolds     Mean Reynolds    Max Reynolds    Correlation
   Product             Stress (m/s)^2   Stress (m/s)^2   Stress (m/s)^2  Coefficient
   ----------------    --------------   --------------   --------------  -----------
   u'w'                     -7.138            -0.027             7.005        -0.025
   u'v'                    -16.429            -0.263            10.265        -0.156
   v'w'                     -4.765            -0.015             6.074        -0.016


   Friction Velocity (Ustar)  =      0.163 m/s
   Maximum Instantaneous TKE  =     16.969 (m/s)^2
   Maximum Instantaneous CTKE =      8.405 (m/s)^2


Grid Point Variance Summary:

   Y-coord -115.00  -95.83  -76.67  -57.50  -38.33  -19.17    0.00   19.17   38.33   57.50   76.67   95.83  115.00

   Height   Standard deviation at grid points for the u component:
   224.00    1.423   1.402   1.369   1.406   1.311   1.359   1.419   1.497   1.558   1.582   1.604   1.663   1.440
   206.50    1.418   1.453   1.478   1.425   1.357   1.275   1.407   1.477   1.514   1.630   1.723   1.532   1.526
   189.00    1.390   1.433   1.490   1.448   1.352   1.317   1.412   1.391   1.574   1.601   1.672   1.517   1.613
   171.50    1.544   1.560   1.452   1.437   1.354   1.290   1.409   1.387   1.448   1.564   1.496   1.490   1.537
   154.00    1.478   1.422   1.376   1.375   1.303   1.291   1.302   1.317   1.461   1.406   1.288   1.384   1.483
   136.50    1.357   1.278   1.307   1.456   1.498   1.414   1.277   1.348   1.401   1.310   1.323   1.341   1.434
   119.00    1.249   1.253   1.277   1.417   1.437   1.418   1.370   1.319   1.426   1.312   1.365   1.357   1.337
   101.50    1.260   1.306   1.354   1.467   1.352   1.387   1.322   1.447   1.360   1.366   1.326   1.301   1.247
    84.00    1.320   1.424   1.468   1.414   1.337   1.411   1.424   1.367   1.305   1.437   1.405   1.349   1.325
    66.50    1.380   1.478   1.381   1.388   1.380   1.330   1.370   1.436   1.412   1.455   1.358   1.328   1.369
    49.00    1.382   1.514   1.381   1.362   1.302   1.361   1.413   1.313   1.427   1.415   1.341   1.377   1.370
    31.50    1.406   1.480   1.479   1.420   1.394   1.368   1.366   1.292   1.429   1.251   1.346   1.442   1.397
    14.00    1.521   1.504   1.428   1.470   1.454   1.344   1.256   1.313   1.392   1.254   1.241   1.326   1.328

   Height   Standard deviation at grid points for the v component:
   224.00    1.233   1.233   1.233   1.233   1.233   1.233   1.233   1.233   1.233   1.233   1.233   1.233   1.233
   206.50    1.233   1.233   1.233   1.233   1.233   1.233   1.233   1.233   1.233   1.233   1.233   1.233   1.233
   189.00    1.233   1.233   1.233   1.233   1.233   1.233   1.233   1.233   1.233   1.233   1.233   1.233   1.233
   171.50    1.233   1.233   1.233   1.233   1.233   1.233   1.233   1.233   1.233   1.233   1.233   1.233   1.233
   154.00    1.233   1.233   1.233   1.233   1.233   1.233   1.233   1.233   1.233   1.233   1.233   1.233   1.233
   136.50    1.233   1.233   1.233   1.233   1.233   1.233   1.233   1.233   1.233   1.233   1.233   1.233   1.233
   119.00    1.233   1.233   1.233   1.233   1.233   1.233   1.233   1.233   1.233   1.233   1.233   1.233   1.233
   101.50    1.233   1.233   1.233   1.233   1.233   1.233   1.233   1.233   1.233   1.233   1.233   1.233   1.233
    84.00    1.233   1.233   1.233   1.233   1.233   1.233   1.233   1.233   1.233   1.233   1.233   1.233   1.233
    66.50    1.233   1.233   1.233   1.233   1.233   1.233   1.233   1.233   1.233   1.233   1.233   1.233   1.233
    49.00    1.233   1.233   1.233   1.233   1.233   1.233   1.233   1.233   1.233   1.233   1.233   1.233   1.233
    31.50    1.233   1.233   1.233   1.233   1.233   1.233   1.233   1.233   1.233   1.233   1.233   1.233   1.233
    14.00    1.233   1.233   1.233   1.233   1.233   1.233   1.233   1.233   1.233   1.233   1.233   1.233   1.233

   Height   Standard deviation at grid points for the w component:
   224.00    0.763   0.763   0.763   0.763   0.763   0.763   0.763   0.763   0.763   0.763   0.763   0.763   0.763
   206.50    0.763   0.763   0.763   0.763   0.763   0.763   0.763   0.763   0.763   0.763   0.763   0.763   0.763
   189.00    0.763   0.763   0.763   0.763   0.763   0.763   0.763   0.763   0.763   0.763   0.763   0.763   0.763
   171.50    0.763   0.763   0.763   0.763   0.763   0.763   0.763   0.763   0.763   0.763   0.763   0.763   0.763
   154.00    0.763   0.763   0.763   0.763   0.763   0.763   0.763   0.763   0.763   0.763   0.763   0.763   0.763
   136.50    0.763   0.763   0.763   0.763   0.763   0.763   0.763   0.763   0.763   0.763   0.763   0.763   0.763
   119.00    0.763   0.763   0.763   0.763   0.763   0.763   0.763   0.763   0.763   0.763   0.763   0.763   0.763
   101.50    0.763   0.763   0.763   0.763   0.763   0.763   0.763   0.763   0.763   0.763   0.763   0.763   0.763
    84.00    0.763   0.763   0.763   0.763   0.763   0.763   0.763   0.763   0.763   0.763   0.763   0.763   0.763
    66.50    0.763   0.763   0.763   0.763   0.763   0.763   0.763   0.763   0.763   0.763   0.763   0.763   0.763
    49.00    0.763   0.763   0.763   0.763   0.763   0.763   0.763   0.763   0.763   0.763   0.763   0.763   0.763
    31.50    0.763   0.763   0.763   0.763   0.763   0.763   0.763   0.763   0.763   0.763   0.763   0.763   0.763
    14.00    0.763   0.763   0.763   0.763   0.763   0.763   0.763   0.763   0.763   0.763   0.763   0.763   0.763

   Mean standard deviation across all grid points:
      u component:    1.402 m/s
      v component:    1.233 m/s
      w component:    0.763 m/s


U-component (X) statistics from the interpolated hub point:

   Mean =  10.0000 m/s
   TI   =  13.7031 %


Processing complete.  2.2188 CPU seconds used.
